I"Ì/Users/isuru/Desktop/Learn%20Labs/rails-dynamic-request-readme-wdf-000/app/assets/javascripts/application.js?type=application/javascript&id=4cdab33d6453e1f04249e2fc4ed326c976b2ca00a455910962c82fcfa8f06a0e:ET