I"¿/Users/isuru/Desktop/Learn%20Labs/rails-dynamic-request-readme-wdf-000/app/assets/stylesheets/application.css?type=text/css&id=c32168ecd5f5789860c22020690e80b534e17981f2b441d95fec541348b8d14f:ET