I"¿/Users/isuru/Desktop/Learn%20Labs/rails-dynamic-request-readme-wdf-000/app/assets/stylesheets/application.css?type=text/css&id=a5161401e5282354374a5dc39795708eb01852a11f91fb7fef554d6f210aef67:ET