[o:Set:
@hash}I"environment-version:ETTI"environment-paths;TTI"?processors:type=text/css&file_type=text/css&pipeline=debug;TTI"{file-digest:///Users/isuru/Desktop/Learn%20Labs/rails-dynamic-request-readme-wdf-000/app/assets/stylesheets/application.css;TTI"Lprocessors:type=text/css&file_type=text/css&engines=.scss&pipeline=self;TTI"{file-digest:///Users/isuru/Desktop/Learn%20Labs/rails-dynamic-request-readme-wdf-000/app/assets/stylesheets/posts.scss;TTI">processors:type=text/css&file_type=text/css&pipeline=self;TTI"pfile-digest:///Users/isuru/Desktop/Learn%20Labs/rails-dynamic-request-readme-wdf-000/app/assets/stylesheets;TTF