I"Í/Users/isuru/Desktop/Learn%20Labs/rails-dynamic-request-readme-wdf-000/app/assets/stylesheets/application.css?type=text/css&pipeline=self&id=7819989925aff64c58f46d2c6bb630b941268e4be399d04ffd57d94f6cff0024:ET