I"È/Users/isuru/Desktop/Learn%20Labs/rails-dynamic-request-readme-wdf-000/app/assets/stylesheets/posts.scss?type=text/css&pipeline=self&id=fea1d966e840da54549e05a66c11aa6901215b3d25dbc76c41a110b8b80692d7:ET