I"Î/Users/isuru/Desktop/Learn%20Labs/rails-dynamic-request-readme-wdf-000/app/assets/stylesheets/application.css?type=text/css&pipeline=debug&id=692b76ab27f3e1026d334646d126a92085f89b6fd3838c2a90a493e7fbacc7f2:ET