I"Û/Users/isuru/Desktop/Learn%20Labs/rails-dynamic-request-readme-wdf-000/app/assets/javascripts/application.js?type=application/javascript&pipeline=debug&id=e641c0277f6a0ccf861164602529dcbc2955122e7304d302bff4764c14c5e498:ET