I"Ú/Users/isuru/Desktop/Learn%20Labs/rails-dynamic-request-readme-wdf-000/app/assets/javascripts/application.js?type=application/javascript&pipeline=self&id=1b87bf8f65a7ad83dbf27c5dfed2f1625269a645d33dc3e155af8ac729387940:ET