I"Ø/Users/isuru/Desktop/Learn%20Labs/rails-dynamic-request-readme-wdf-000/app/assets/javascripts/posts.coffee?type=application/javascript&pipeline=self&id=d50a8214b20bd66d414fd1f57d095feb80233de0d5919a269e052dfdb0c7620a:ET